(|SYSTEM|::|VERSION| '(20080430.))
#0Y_ #0Y |CHARSET|::|UTF-8|
#Y(#:|1 4 (IN-PACKAGE "COMPILER")-1|
   #17Y(00 00 00 00 00 00 00 00 20 01 DA 31 F6 0F 01 19 01)
   ("COMPILER" |COMMON-LISP|::|*PACKAGE*|)
   (|COMMON-LISP|::|T| |COMMON-LISP|::|T| |COMMON-LISP|::|T|))
#Y(#:|6 13 (DEFUN ORIG-FUNDEF (OBJECT) ...)-2|
   #20Y(00 00 00 00 00 00 00 00 20 01 DA 2F 01 DA DC 32 9C C5 19 01)
   (|SYSTEM|::|ORIG-FUNDEF| |SYSTEM|::|REMOVE-OLD-DEFINITIONS|
    #Y(|SYSTEM|::|ORIG-FUNDEF|
       #49Y(00 00 00 00 01 00 00 00 20 02 AD 8D 58 14 AD 6F 04 AC DF 38 01 8E
            9E 02 9D 5E 14 AC 8E 57 0D 15 19 03 DA DB AF DC 6F 03 B1 33 03 1F
            AC 32 58 19 04)
       (|COMMON-LISP|::|UNDEFINED-FUNCTION| :|NAME| "Undefined function ~S"
        |SYSTEM|::|TEXT| |SYSTEM|::|GET-FUNNAME-SYMBOL|
        |SYSTEM|::|TRACED-DEFINITION|)
       (|COMMON-LISP|::|T| |COMMON-LISP|::|T| |COMMON-LISP|::|T|)))
   (|COMMON-LISP|::|T| |COMMON-LISP|::|T| |COMMON-LISP|::|T|))
#Y(#:|15 71 (DEFGENERIC DISASSEMBLE (OBJECT &KEY QUALIFIERS ...) ...)-3|
   #457Y(00 00 00 00 00 00 00 00 20 01 DA DB 38 01 8F 9E 03 DA 2F 02 DA DD DA
         6F 04 2D 03 05 6B 06 99 07 DA E2 AF E3 E4 E5 E6 E7 E8 E9 6B 10 63 7B
         01 99 11 AE EC 63 E3 ED EE EF F0 F1 38 02 72 3A 7B 01 F2 64 F3 B9 BB
         F4 03 1B 7A 30 1C 37 0D 16 01 F8 6B 10 63 7B 01 99 11 AE EC 63 E3 F7
         EE 65 1E F0 65 1F 38 02 72 3A 7B 01 F2 64 F3 B9 BB 65 20 03 21 7A 30
         1C 37 0D 16 01 F8 6B 10 63 7B 01 99 11 AE EC 63 E3 65 22 EE 65 23 F0
         65 24 38 02 72 3A 7B 01 F2 64 F3 B9 BB 65 25 03 26 7A 30 1C 37 0D 16
         01 F8 6B 10 63 7B 01 99 11 AE EC 63 E3 65 27 EE 65 28 F0 65 29 38 02
         72 3A 7B 01 F2 64 F3 B9 BB 65 2A 03 2B 7A 30 1C 37 0D 16 01 F8 6B 10
         63 7B 01 99 11 AE EC 63 E3 65 2C EE 65 2D F0 65 2E 38 02 72 3A 7B 01
         F2 64 F3 B9 BB 65 2F 03 30 7A 30 1C 37 0D 16 01 F8 6B 10 63 7B 01 99
         11 AE EC 63 E3 65 31 EE 65 32 F0 65 33 38 02 72 3A 7B 01 F2 64 F3 B9
         BB 65 34 03 35 7A 30 1C 37 0D 16 01 F8 6B 10 63 7B 01 99 11 AE EC 63
         E3 65 36 EE 65 37 F0 64 38 02 72 3A 7B 01 F2 64 F3 B9 BB 65 38 03 39
         7A 30 1C 37 0D 16 01 F8 6B 10 63 7B 01 99 11 AE EC 63 E3 65 3A EE 65
         3B F0 65 3C 38 02 72 3A 7B 01 F2 64 F3 B9 BB 65 3D 03 3E 7A 30 1C 37
         0D 16 01 F8 7B 08 01 02 BA 6F 3F 1B 24 AF 38 01 80 A9 03 14 AD 31 B8
         16 02 1B 14 94 00 94 00 9E 5C 5C 78 76 00 7B 02 A1 21 63 9D FC FB 16
         02 83 00 AC 8D 9F 66 16 01 9E 16 01 F8 65 40 6B 10 65 41 BC 65 42 DA
         6E 03 43 65 44 63 6E 03 45 65 46 63 7B 06 33 02 23 9B 0B 02)
   (|COMMON-LISP|::|DISASSEMBLE| |SYSTEM|::|TRACED-DEFINITION|
    |SYSTEM|::|UNTRACE1| |CLOS|::|DEFGENERIC| |SYSTEM|::|FBOUND-STRING|
    |SYSTEM|::|CHECK-REDEFINITION| |CLOS|::|<STANDARD-GENERIC-FUNCTION>|
    |CLOS|::|ENSURE-GENERIC-FUNCTION| :|GENERIC-FUNCTION-CLASS| :|LAMBDA-LIST|
    (|SYSTEM|::|OBJECT| |COMMON-LISP|::|&KEY| |SYSTEM|::|QUALIFIERS|
     |SYSTEM|::|SPECIALIZERS|)
    :|ARGUMENT-PRECEDENCE-ORDER| (|SYSTEM|::|OBJECT|) :|DOCUMENTATION|
    "disassemble the OBJECT, which should be a function.\n
if QUALIFIERS or SPECIALIZERS is given, OBJECT should be a generic function."
    |CLOS|::|METHODS| |CLOS|::|<STANDARD-METHOD>|
    |CLOS|::|MAKE-METHOD-INSTANCE| :|QUALIFIERS|
    (|SYSTEM|::|OBJECT| |COMMON-LISP|::|&REST| |SYSTEM|::|JUNK|)
    |CLOS|::|SIGNATURE|
    #(1. 0. |COMMON-LISP|::|T| |COMMON-LISP|::|NIL| |COMMON-LISP|::|NIL|
      |COMMON-LISP|::|NIL|)
    :|SPECIALIZERS| |COMMON-LISP|::|STRING| |CLOS|::|FROM-DEFGENERIC|
    |CLOS|::|BACKPOINTER|
    #Y(#:|15 71 (DEFGENERIC DISASSEMBLE (OBJECT &KEY QUALIFIERS ...) ...)-3-1|
       #23Y(00 00 00 00 01 00 00 00 21 17 2E 00 14 2E 01 14 63 B1 2D 04 02 19
            03)
       (|SYSTEM|::|PROGRAM-NAME| |SYSTEM|::|PROCESS-ID|
        |SYSTEM|::|DISASSEMBLE-MACHINE-CODE|)
       (|COMMON-LISP|::|T| |COMMON-LISP|::|T| |COMMON-LISP|::|T|))
    (|COMMON-LISP|::|T|) |CLOS|::|METHOD-FUNCTION-INITARGS|
    (|SYSTEM|::|OBJECT| |COMMON-LISP|::|&KEY|
     |COMMON-LISP|::|&ALLOW-OTHER-KEYS|)
    #(1. 0. |COMMON-LISP|::|T| |COMMON-LISP|::|T| |COMMON-LISP|::|NIL|
      |COMMON-LISP|::|T|)
    |CLOS|::|METHOD|
    #Y(#:|15 71 (DEFGENERIC DISASSEMBLE (OBJECT &KEY QUALIFIERS ...) ...)-3-2|
       #16Y(00 00 00 00 01 00 00 00 21 17 DA AF A0 9B 01 03)
       (#Y(#:|15 71 (DEFGENERIC DISASSEMBLE (OBJECT &KEY QUALIFIERS ...) ...)-3-2-1|
           #21Y(00 00 00 00 01 00 00 00 E0 1C 00 00 00 00 AD 6F 00 2F 01 19 02)
           (|CLOS|::|METHOD-FUNCTION| |COMMON-LISP|::|DISASSEMBLE|)
           (|COMMON-LISP|::|T| |COMMON-LISP|::|T| |COMMON-LISP|::|T|)))
       (|COMMON-LISP|::|T| |COMMON-LISP|::|T| |COMMON-LISP|::|T|))
    (|COMMON-LISP|::|T|)
    (|SYSTEM|::|OBJECT| |COMMON-LISP|::|&KEY|
     |COMMON-LISP|::|&ALLOW-OTHER-KEYS|)
    #(1. 0. |COMMON-LISP|::|T| |COMMON-LISP|::|T| |COMMON-LISP|::|NIL|
      |COMMON-LISP|::|T|)
    |CLOS|::|STANDARD-METHOD|
    #Y(#:|15 71 (DEFGENERIC DISASSEMBLE (OBJECT &KEY QUALIFIERS ...) ...)-3-3|
       #16Y(00 00 00 00 01 00 00 00 21 17 DA AF A0 9B 01 03)
       (#Y(#:|15 71 (DEFGENERIC DISASSEMBLE (OBJECT &KEY QUALIFIERS ...) ...)-3-3-1|
           #26Y(00 00 00 00 01 00 00 00 E0 1C 00 00 00 00 AD 88 00 03 AD 2F 01
                14 2F 02 19 02)
           (|CLOS|::|STD-METHOD-FAST-FUNCTION| |CLOS|::|STD-METHOD-FUNCTION|
            |COMMON-LISP|::|DISASSEMBLE|)
           (|COMMON-LISP|::|T| |COMMON-LISP|::|T| |COMMON-LISP|::|T|)))
       (|COMMON-LISP|::|T| |COMMON-LISP|::|T| |COMMON-LISP|::|T|))
    (|COMMON-LISP|::|T|)
    (|SYSTEM|::|OBJECT| |COMMON-LISP|::|&KEY| |SYSTEM|::|QUALIFIERS|
     |SYSTEM|::|SPECIALIZERS|)
    #(1. 0. |COMMON-LISP|::|T| |COMMON-LISP|::|T|
      (:|QUALIFIERS| :|SPECIALIZERS|) |COMMON-LISP|::|NIL|)
    |CLOS|::|STANDARD-GENERIC-FUNCTION|
    #Y(#:|15 71 (DEFGENERIC DISASSEMBLE (OBJECT &KEY QUALIFIERS ...) ...)-3-4|
       #16Y(00 00 00 00 01 00 00 00 21 17 DA AF A0 9B 01 03)
       (#Y(#:|15 71 (DEFGENERIC DISASSEMBLE (OBJECT &KEY QUALIFIERS ...) ...)-3-4-1|
           #49Y(00 00 00 00 01 00 00 00 E0 1C 02 00 00 00 3D 02 3B 01 13 7D 01
                93 02 11 AF AF DC B0 73 00 16 6E 03 03 2F 04 19 04 92 02 6F 92
                01 6C AF 2F 05 19 04)
           (:|QUALIFIERS| :|SPECIALIZERS| #.#'|CLOS|::|FIND-CLASS|
            |CLOS|::|FIND-METHOD| |COMMON-LISP|::|DISASSEMBLE|
            |SYSTEM|::|DISASSEMBLE-CLOSURE|)
           (|COMMON-LISP|::|T| |COMMON-LISP|::|T| |COMMON-LISP|::|T|)))
       (|COMMON-LISP|::|T| |COMMON-LISP|::|T| |COMMON-LISP|::|T|))
    (|COMMON-LISP|::|T|)
    (|SYSTEM|::|OBJECT| |COMMON-LISP|::|&REST| |SYSTEM|::|OPTS|)
    #(1. 0. |COMMON-LISP|::|T| |COMMON-LISP|::|NIL| |COMMON-LISP|::|NIL|
      |COMMON-LISP|::|NIL|)
    |COMMON-LISP|::|SYMBOL|
    #Y(#:|15 71 (DEFGENERIC DISASSEMBLE (OBJECT &KEY QUALIFIERS ...) ...)-3-5|
       #34Y(00 00 00 00 01 00 00 00 21 17 99 00 AF 8E 5A 08 AF 2F 03 14 A0 9B
            01 03 DB 63 B1 7B 03 DC 32 3B 1B 71)
       (|COMMON-LISP|::|DISASSEMBLE| |COMMON-LISP|::|LAMBDA|
        |COMMON-LISP|::|FUNCTION| |SYSTEM|::|ORIG-FUNDEF|)
       (|COMMON-LISP|::|T| |COMMON-LISP|::|T| |COMMON-LISP|::|T|))
    (|COMMON-LISP|::|T|)
    (|SYSTEM|::|OBJECT| |COMMON-LISP|::|&REST| |SYSTEM|::|OPTS|)
    #(1. 0. |COMMON-LISP|::|T| |COMMON-LISP|::|NIL| |COMMON-LISP|::|NIL|
      |COMMON-LISP|::|NIL|)
    |COMMON-LISP|::|CONS|
    #Y(#:|15 71 (DEFGENERIC DISASSEMBLE (OBJECT &KEY QUALIFIERS ...) ...)-3-6|
       #43Y(00 00 00 00 01 00 00 00 21 17 99 00 AF 8C 68 13 94 03 24 02 13 DC
            63 B1 61 03 14 DD 32 3B 14 A0 9B 01 03 AF 2F 01 1B 76 A0 1B 6F)
       (|COMMON-LISP|::|DISASSEMBLE| |SYSTEM|::|ORIG-FUNDEF|
        |COMMON-LISP|::|LAMBDA| |COMMON-LISP|::|FUNCTION|)
       (|COMMON-LISP|::|T| |COMMON-LISP|::|T| |COMMON-LISP|::|T|))
    (|COMMON-LISP|::|T|)
    (|SYSTEM|::|OBJECT| |COMMON-LISP|::|&REST| |SYSTEM|::|OPTS|)
    #(1. 0. |COMMON-LISP|::|T| |COMMON-LISP|::|NIL| |COMMON-LISP|::|NIL|
      |COMMON-LISP|::|NIL|)
    #Y(#:|15 71 (DEFGENERIC DISASSEMBLE (OBJECT &KEY QUALIFIERS ...) ...)-3-7|
       #19Y(00 00 00 00 01 00 00 00 21 17 AE DA 72 3B AE 30 01 19 03)
       (|COMMON-LISP|::|FUNCTION| |COMMON-LISP|::|DISASSEMBLE|)
       (|COMMON-LISP|::|T| |COMMON-LISP|::|T| |COMMON-LISP|::|T|))
    (|COMMON-LISP|::|T|)
    (|SYSTEM|::|OBJECT| |COMMON-LISP|::|&REST| |SYSTEM|::|JUNK|)
    #(1. 0. |COMMON-LISP|::|T| |COMMON-LISP|::|NIL| |COMMON-LISP|::|NIL|
      |COMMON-LISP|::|NIL|)
    |COMMON-LISP|::|FUNCTION|
    #Y(#:|15 71 (DEFGENERIC DISASSEMBLE (OBJECT &KEY QUALIFIERS ...) ...)-3-8|
       #111Y(00 00 00 00 01 00 00 00 21 17 AE AC 88 00 2F AC 8F 1C 80 50 AC 8E
             3F 20 AC 72 48 AD E4 72 40 AE E5 72 40 AF E6 72 40 B0 E7 72 40 B1
             E8 72 40 B2 E9 72 40 63 2D 08 10 F8 AC 2F 11 00 19 04 2E 01 14 2E
             02 14 AE 38 02 72 8F B0 6F 00 DD AE 38 02 31 95 AD 01 06 B3 2D 08
             04 16 01 AC 81 90 00 2D 04 05 19 04 E0 6F 07 AD 30 08 AC 2F 09 19
             04)
       (|SYSTEM|::|CODE-ADDRESS-OF| |SYSTEM|::|PROGRAM-NAME|
        |SYSTEM|::|PROCESS-ID| "0x" |SYSTEM|::|DO-FORMAT-HEXADECIMAL|
        |SYSTEM|::|DISASSEMBLE-MACHINE-CODE|
        "Cannot disassemble natively compiled function ~S" |SYSTEM|::|TEXT|
        |COMMON-LISP|::|WARN| |COMMON-LISP|::|DESCRIBE| 1. 4. 5. 6. 7. 8.
        |SYSTEM|::|COMPILE-LAMBDA| |SYSTEM|::|DISASSEMBLE-CLOSURE|)
       (|COMMON-LISP|::|T| |COMMON-LISP|::|T| |COMMON-LISP|::|T|))
    (|COMMON-LISP|::|T|) |CLOS|::|CLASS-DEFAULT-INITARGS| :|METHOD-CLASS|
    :|METHOD-COMBINATION| :|NAME| |CLOS|::|MAKE-GENERIC-FUNCTION-PROTOTYPE|
    |CLOS|::|STANDARD| |CLOS|::|FIND-METHOD-COMBINATION| :|DECLARATIONS|)
   (|COMMON-LISP|::|T| |COMMON-LISP|::|T| |COMMON-LISP|::|T|))
#Y(#:|73 148 (DEFUN DISASSEMBLE-MACHINE-CODE (PROGRAM-NAME PID FUNCTION ...) ...)-4|
   #20Y(00 00 00 00 00 00 00 00 20 01 DA 2F 01 DA DC 32 9C C5 19 01)
   (|SYSTEM|::|DISASSEMBLE-MACHINE-CODE| |SYSTEM|::|REMOVE-OLD-DEFINITIONS|
    #Y(|SYSTEM|::|DISASSEMBLE-MACHINE-CODE|
       #426Y(03 00 01 00 04 00 00 00 20 05 DA 6F 01 8F AC 80 85 AD 8E 19 0E 38
             02 72 8F AE AD 31 90 AC 32 90 16 01 F9 38 02 72 8F E0 AD 38 02 31
             95 AC 01 06 B7 2D 08 07 AC 81 90 00 38 02 72 8F E2 AD 38 02 31 95
             AC 01 06 B8 2D 08 07 AC 81 90 00 6B 09 AE E4 38 05 72 0B 53 80 D3
             AE E5 30 05 AE E6 30 05 93 03 06 AE E7 B7 2D 03 05 B3 E8 71 31 38
             01 8C 26 37 AE D5 14 B5 2D 03 05 93 03 04 AE EB 30 05 AE EC 30 05
             93 02 03 14 2F 13 3E 54 05 00 00 00 1D 80 A4 1B 80 9B 93 02 03 14
             2F 02 38 01 31 98 64 DD 6F 04 30 05 1B 80 FE AE D4 1B 47 38 02 72
             8F EF AD 31 90 F0 AD 38 02 31 95 AF AD 31 90 F1 AD 31 94 B4 AD 31
             90 F2 AD 38 02 31 95 AE AD 31 90 F3 AD 38 02 31 95 AC 01 06 BA 2D
             08 07 1B 80 81 AD 65 22 38 05 72 0B 53 2F AE 01 02 38 01 71 82 93
             00 13 65 23 6B 24 AE 33 02 15 AF 01 02 38 01 80 82 00 92 00 6D 16
             01 93 02 03 14 2F 13 3E 54 05 00 00 00 1D 0E 1B 06 05 00 00 00 1D
             06 14 EE 64 2D 03 13 55 16 01 1B 80 77 05 00 00 00 1D 06 14 EE 64
             2D 03 13 55 16 01 92 00 FF 6F 38 02 72 8F F4 AD 31 90 F5 AD 38 02
             31 95 AF AD 31 90 F1 AD 31 94 B4 AD 31 90 F6 AD 38 02 31 95 AE AD
             31 90 AC 81 90 00 2F 01 AE 32 09 F7 6F 1E 65 1F 38 04 8C 35 FF 6B
             65 20 6F 1E 65 21 38 04 8C 35 FF 5F 38 02 72 8F 65 25 88 1E 02 03
             26 14 AC AE 31 90 F1 AE 31 94 AF AE 31 90 16 01 AC 81 90 00 2F 01
             AD 32 09 16 03 00 19 05)
       ("gdb --version > /dev/null 2>&1" |EXT|::|SHELL|
        |COMMON-LISP|::|DESCRIBE|
        "Cannot show machine instructions: gdb not found." |SYSTEM|::|TEXT|
        |COMMON-LISP|::|FORMAT| "/tmp/gdbcomm" |SYSTEM|::|DO-FORMAT-DECIMAL|
        "/tmp/gdbdis" |SYSTEM|::|*DISASSEMBLE-USE-LIVE-PROCESS*| :|OUTPUT|
        #Y(|SYSTEM|::|DISASSEMBLE-MACHINE-CODE-1|
           #19Y(00 00 00 00 01 00 00 00 21 17 DA AF 38 02 31 95 9E 19 03)
           ("set height 100000\n")
           (|COMMON-LISP|::|T| |COMMON-LISP|::|T| |COMMON-LISP|::|T|))
        #Y(|SYSTEM|::|DISASSEMBLE-MACHINE-CODE-2|
           #19Y(00 00 00 00 01 00 00 00 21 17 DA AF 38 02 31 95 9E 19 03)
           ("set width 1000\n")
           (|COMMON-LISP|::|T| |COMMON-LISP|::|T| |COMMON-LISP|::|T|))
        #Y(|SYSTEM|::|DISASSEMBLE-MACHINE-CODE-3|
           #29Y(00 00 00 00 02 00 00 00 21 18 DA B0 38 02 31 95 AF 01 06 B5 2D
                08 01 AF 31 97 9E 19 04)
           ("attach " |SYSTEM|::|DO-FORMAT-DECIMAL|)
           (|COMMON-LISP|::|T| |COMMON-LISP|::|T| |COMMON-LISP|::|T|))
        0.
        #Y(|SYSTEM|::|DISASSEMBLE-MACHINE-CODE-4|
           #26Y(00 00 00 00 02 00 00 00 21 18 DA B0 38 02 31 95 AE B0 31 90 AF
                31 97 9E 19 04)
           ("disassemble ")
           (|COMMON-LISP|::|T| |COMMON-LISP|::|T| |COMMON-LISP|::|T|))
        #Y(|SYSTEM|::|DISASSEMBLE-MACHINE-CODE-5|
           #26Y(00 00 00 00 02 00 00 00 21 18 DA B0 38 02 31 95 AE B0 31 90 AF
                31 97 9E 19 04)
           ("x/10000i ")
           (|COMMON-LISP|::|T| |COMMON-LISP|::|T| |COMMON-LISP|::|T|))
        #Y(|SYSTEM|::|DISASSEMBLE-MACHINE-CODE-6|
           #19Y(00 00 00 00 01 00 00 00 21 17 DA AF 38 02 31 95 9E 19 03)
           ("detach\n")
           (|COMMON-LISP|::|T| |COMMON-LISP|::|T| |COMMON-LISP|::|T|))
        #Y(|SYSTEM|::|DISASSEMBLE-MACHINE-CODE-7|
           #19Y(00 00 00 00 01 00 00 00 21 17 DA AF 38 02 31 95 9E 19 03)
           ("quit\n")
           (|COMMON-LISP|::|T| |COMMON-LISP|::|T| |COMMON-LISP|::|T|))
        |COMMON-LISP|::|CLOSE| :|ABORT| "gdb" " -n -batch -x " #\Space
        " < /dev/null | grep '^0' > " " ; kill -CONT " "gdb" " -n -batch -x "
        " < /dev/null | grep '^0' > " "TERM" |EXT|::|GETENV| "dumb" "TERM"
        "emacs" :|INPUT|
        #Y(|SYSTEM|::|DISASSEMBLE-MACHINE-CODE-8|
           #20Y(00 00 00 00 02 00 00 00 21 18 AE B0 31 90 AF 31 97 9E 19 04) ()
           (|COMMON-LISP|::|T| |COMMON-LISP|::|T| |COMMON-LISP|::|T|))
        |COMMON-LISP|::|*STANDARD-OUTPUT*| "PAGER" "more")
       (|COMMON-LISP|::|T| |COMMON-LISP|::|T| |COMMON-LISP|::|T|)))
   (|COMMON-LISP|::|T| |COMMON-LISP|::|T| |COMMON-LISP|::|T|))
